
     RDKit          3D

 40 42  0  0  0  0  0  0  0  0999 V2000
  122.1280  104.9930  107.3360 C   0  0  0  0  0  0  0  0  0  0  0  0
  120.2960  106.1680  104.0970 C   0  0  0  0  0  0  0  0  0  0  0  0
  120.7970  103.7640  103.9090 C   0  0  0  0  0  0  0  0  0  0  0  0
  119.5400  105.0970  101.9680 C   0  0  0  0  0  0  0  0  0  0  0  0
  118.3070  105.1340   99.4660 C   0  0  0  0  0  0  0  0  0  0  0  0
  119.6890  105.2300   99.5650 C   0  0  0  0  0  0  0  0  0  0  0  0
  120.2970  105.2150  100.8160 C   0  0  0  0  0  0  0  0  0  0  0  0
  125.4010  106.4760  107.8180 C   0  0  0  0  0  0  0  0  0  0  0  0
  124.0370  106.1180  108.2690 C   0  0  1  0  0  0  0  0  0  0  0  0
  123.1510  107.3550  108.1620 C   0  0  0  0  0  0  0  0  0  0  0  0
  125.3290  107.9390  107.4730 C   0  0  1  0  0  0  0  0  0  0  0  0
  125.3090  108.1220  105.9630 C   0  0  0  0  0  0  0  0  0  0  0  0
  121.4550  105.0360  105.9450 C   0  0  0  0  0  0  0  0  0  0  0  0
  120.9570  106.1640  105.4830 C   0  0  0  0  0  0  0  0  0  0  0  0
  120.2200  105.0690  103.3680 C   0  0  0  0  0  0  0  0  0  0  0  0
  121.3690  103.7590  105.1020 C   0  0  0  0  0  0  0  0  0  0  0  0
  118.1560  104.9880  101.8720 C   0  0  0  0  0  0  0  0  0  0  0  0
  117.5400  105.0170  100.6220 C   0  0  0  0  0  0  0  0  0  0  0  0
  124.0850  108.4800  108.0140 N   0  0  0  0  0  0  0  0  0  0  0  0
  124.2290  108.4090  105.3850 O   0  0  0  0  0  0  0  0  0  0  0  0
  126.3690  107.9920  105.3060 O   0  0  0  0  0  0  0  0  0  0  0  0
  123.5370  105.0840  107.4250 O   0  0  0  0  0  0  0  0  0  0  0  0
  121.4670  104.8690  108.3070 O   0  0  0  0  0  0  0  0  0  0  0  0
  119.8770  107.1056  103.7029 H   0  0  0  0  0  0  0  0  0  0  0  0
  120.7382  102.8400  103.3151 H   0  0  0  0  0  0  0  0  0  0  0  0
  117.8210  105.1503   98.4793 H   0  0  0  0  0  0  0  0  0  0  0  0
  120.3017  105.3177   98.6557 H   0  0  0  0  0  0  0  0  0  0  0  0
  121.3914  105.2978  100.8901 H   0  0  0  0  0  0  0  0  0  0  0  0
  126.1311  106.3046  108.6227 H   0  0  0  0  0  0  0  0  0  0  0  0
  125.7251  105.8663  106.9617 H   0  0  0  0  0  0  0  0  0  0  0  0
  124.0482  105.7653  109.3109 H   0  0  0  0  0  0  0  0  0  0  0  0
  122.4905  107.2829  107.2853 H   0  0  0  0  0  0  0  0  0  0  0  0
  122.4980  107.4727  109.0393 H   0  0  0  0  0  0  0  0  0  0  0  0
  126.2045  108.4549  107.8941 H   0  0  0  0  0  0  0  0  0  0  0  0
  121.0135  107.0867  106.0791 H   0  0  0  0  0  0  0  0  0  0  0  0
  121.7901  102.8221  105.4956 H   0  0  0  0  0  0  0  0  0  0  0  0
  117.5483  104.8790  102.7824 H   0  0  0  0  0  0  0  0  0  0  0  0
  116.4447  104.9472  100.5487 H   0  0  0  0  0  0  0  0  0  0  0  0
  124.2591  108.9172  108.9302 H   0  0  0  0  0  0  0  0  0  0  0  0
  124.2101  108.5293  104.4025 H   0  0  0  0  0  0  0  0  0  0  0  0
  6  5  2  0
  7  6  1  0
  7  4  2  0
  9  8  1  0
 10  9  1  0
 11  8  1  0
 12 11  1  0
 13  1  1  0
 14 13  1  0
 14  2  2  0
 15  4  1  0
 15  3  2  0
 15  2  1  0
 16 13  2  0
 16  3  1  0
 17  4  1  0
 18 17  2  0
 18  5  1  0
 19 11  1  0
 19 10  1  0
 20 12  1  0
 21 12  2  0
 22  9  1  0
 22  1  1  0
 23  1  2  0
  2 24  1  0
  3 25  1  0
  5 26  1  0
  6 27  1  0
  7 28  1  0
  8 29  1  0
  8 30  1  0
  9 31  1  1
 10 32  1  0
 10 33  1  0
 11 34  1  1
 14 35  1  0
 16 36  1  0
 17 37  1  0
 18 38  1  0
 19 39  1  0
 20 40  1  0
M  END
$$$$
