
     RDKit          3D

 28 31  0  0  0  0  0  0  0  0999 V2000
   17.3640   39.7940    4.1560 C   0  0  0  0  0  0  0  0  0  0  0  0
   16.3940   40.4750    6.1170 C   0  0  0  0  0  0  0  0  0  0  0  0
   17.6310   40.5720    6.7650 C   0  0  0  0  0  0  0  0  0  0  0  0
   28.8790   42.5720    1.7890 O   0  0  0  0  0  0  0  0  0  0  0  0
   25.3880   39.8300    2.4310 C   0  0  0  0  0  0  0  0  0  0  0  0
   26.6180   40.3580    3.2250 C   0  0  0  0  0  0  0  0  0  0  0  0
   26.9510   41.8630    2.9370 C   0  0  0  0  0  0  0  0  0  0  0  0
   25.6630   42.7510    2.9100 C   0  0  0  0  0  0  0  0  0  0  0  0
   27.6330   41.9510    1.5510 C   0  0  0  0  0  0  0  0  0  0  0  0
   29.3200   42.1570    3.0680 C   0  0  2  0  0  0  0  0  0  0  0  0
   28.0570   42.3070    3.9190 C   0  0  1  0  0  0  0  0  0  0  0  0
   30.5630   42.9390    3.4980 C   0  0  0  0  0  0  0  0  0  0  0  0
   16.2510   40.0700    4.8530 N   0  0  0  0  0  0  0  0  0  0  0  0
   18.7860   40.3120    6.0320 C   0  0  0  0  0  0  0  0  0  0  0  0
   18.6530   39.8630    4.7130 C   0  0  0  0  0  0  0  0  0  0  0  0
   20.3390   40.4820    6.8380 S   0  0  0  0  0  0  0  0  0  0  0  0
   21.4610   40.5230    5.5090 C   0  0  0  0  0  0  0  0  0  0  0  0
   21.3650   41.6120    4.7130 N   0  0  0  0  0  0  0  0  0  0  0  0
   22.3050   41.6780    3.7600 C   0  0  0  0  0  0  0  0  0  0  0  0
   23.3010   40.6890    3.5730 C   0  0  0  0  0  0  0  0  0  0  0  0
   23.3830   39.6340    4.4200 N   0  0  0  0  0  0  0  0  0  0  0  0
   22.4610   39.5390    5.3790 C   0  0  0  0  0  0  0  0  0  0  0  0
   22.5850   38.4420    6.2210 N   0  0  0  0  0  0  0  0  0  0  0  0
   17.7300   41.0640    8.4130 Cl  0  0  0  0  0  0  0  0  0  0  0  0
   24.5740   42.1400    2.0080 C   0  0  0  0  0  0  0  0  0  0  0  0
   24.3310   40.8310    2.6120 N   0  0  0  0  0  0  0  0  0  0  0  0
   27.8870   43.6720    4.4760 N   0  0  0  0  0  0  0  0  0  0  0  0
   15.2390   40.7880    6.8020 N   0  0  0  0  0  0  0  0  0  0  0  0
  3  2  1  0
  6  5  1  0
  7  6  1  0
  8  7  1  0
  9  7  1  0
  9  4  1  0
 10  4  1  0
 11  7  1  0
 11 10  1  0
 10 12  1  1
 13  1  1  0
 13  2  1  0
 14  3  2  0
 15  1  2  0
 15 14  1  0
 16 14  1  0
 17 16  1  0
 18 17  2  0
 19 18  1  0
 20 19  2  0
 21 20  1  0
 22 17  1  0
 22 21  1  0
 23 22  2  0
 24  3  1  0
 25  8  1  0
 26 25  1  0
 26 20  1  0
 26  5  1  0
 11 27  1  6
 28  2  2  0
M  END
$$$$

     RDKit          3D

 28 31  0  0  0  0  0  0  0  0999 V2000
   17.3640   39.7940    4.1560 C   0  0  0  0  0  0  0  0  0  0  0  0
   16.3940   40.4750    6.1170 C   0  0  0  0  0  0  0  0  0  0  0  0
   17.6310   40.5720    6.7650 C   0  0  0  0  0  0  0  0  0  0  0  0
   28.8790   42.5720    1.7890 O   0  0  0  0  0  0  0  0  0  0  0  0
   25.3880   39.8300    2.4310 C   0  0  0  0  0  0  0  0  0  0  0  0
   26.6180   40.3580    3.2250 C   0  0  0  0  0  0  0  0  0  0  0  0
   26.9510   41.8630    2.9370 C   0  0  0  0  0  0  0  0  0  0  0  0
   25.6630   42.7510    2.9100 C   0  0  0  0  0  0  0  0  0  0  0  0
   27.6330   41.9510    1.5510 C   0  0  0  0  0  0  0  0  0  0  0  0
   29.3200   42.1570    3.0680 C   0  0  2  0  0  0  0  0  0  0  0  0
   28.0570   42.3070    3.9190 C   0  0  1  0  0  0  0  0  0  0  0  0
   30.5630   42.9390    3.4980 C   0  0  0  0  0  0  0  0  0  0  0  0
   16.2510   40.0700    4.8530 N   0  0  0  0  0  0  0  0  0  0  0  0
   18.7860   40.3120    6.0320 C   0  0  0  0  0  0  0  0  0  0  0  0
   18.6530   39.8630    4.7130 C   0  0  0  0  0  0  0  0  0  0  0  0
   20.3390   40.4820    6.8380 S   0  0  0  0  0  0  0  0  0  0  0  0
   21.4610   40.5230    5.5090 C   0  0  0  0  0  0  0  0  0  0  0  0
   21.3650   41.6120    4.7130 N   0  0  0  0  0  0  0  0  0  0  0  0
   22.3050   41.6780    3.7600 C   0  0  0  0  0  0  0  0  0  0  0  0
   23.3010   40.6890    3.5730 C   0  0  0  0  0  0  0  0  0  0  0  0
   23.3830   39.6340    4.4200 N   0  0  0  0  0  0  0  0  0  0  0  0
   22.4610   39.5390    5.3790 C   0  0  0  0  0  0  0  0  0  0  0  0
   22.5850   38.4420    6.2210 N   0  0  0  0  0  0  0  0  0  0  0  0
   17.7300   41.0640    8.4130 Cl  0  0  0  0  0  0  0  0  0  0  0  0
   24.5740   42.1400    2.0080 C   0  0  0  0  0  0  0  0  0  0  0  0
   24.3310   40.8310    2.6120 N   0  0  0  0  0  0  0  0  0  0  0  0
   27.8870   43.6720    4.4760 N   0  0  0  0  0  0  0  0  0  0  0  0
   15.2390   40.7880    6.8020 N   0  0  0  0  0  0  0  0  0  0  0  0
  3  2  1  0
  6  5  1  0
  7  6  1  0
  8  7  1  0
  9  7  1  0
  9  4  1  0
 10  4  1  0
 11  7  1  0
 11 10  1  0
 10 12  1  1
 13  1  1  0
 13  2  1  0
 14  3  2  0
 15  1  2  0
 15 14  1  0
 16 14  1  0
 17 16  1  0
 18 17  2  0
 19 18  1  0
 20 19  2  0
 21 20  1  0
 22 17  1  0
 22 21  2  0
 23 22  1  0
 24  3  1  0
 25  8  1  0
 26 25  1  0
 26 20  1  0
 26  5  1  0
 11 27  1  6
 28  2  2  0
M  END
$$$$

     RDKit          3D

 28 31  0  0  0  0  0  0  0  0999 V2000
   17.3640   39.7940    4.1560 C   0  0  0  0  0  0  0  0  0  0  0  0
   16.3940   40.4750    6.1170 C   0  0  0  0  0  0  0  0  0  0  0  0
   17.6310   40.5720    6.7650 C   0  0  0  0  0  0  0  0  0  0  0  0
   28.8790   42.5720    1.7890 O   0  0  0  0  0  0  0  0  0  0  0  0
   25.3880   39.8300    2.4310 C   0  0  0  0  0  0  0  0  0  0  0  0
   26.6180   40.3580    3.2250 C   0  0  0  0  0  0  0  0  0  0  0  0
   26.9510   41.8630    2.9370 C   0  0  0  0  0  0  0  0  0  0  0  0
   25.6630   42.7510    2.9100 C   0  0  0  0  0  0  0  0  0  0  0  0
   27.6330   41.9510    1.5510 C   0  0  0  0  0  0  0  0  0  0  0  0
   29.3200   42.1570    3.0680 C   0  0  2  0  0  0  0  0  0  0  0  0
   28.0570   42.3070    3.9190 C   0  0  1  0  0  0  0  0  0  0  0  0
   30.5630   42.9390    3.4980 C   0  0  0  0  0  0  0  0  0  0  0  0
   16.2510   40.0700    4.8530 N   0  0  0  0  0  0  0  0  0  0  0  0
   18.7860   40.3120    6.0320 C   0  0  0  0  0  0  0  0  0  0  0  0
   18.6530   39.8630    4.7130 C   0  0  0  0  0  0  0  0  0  0  0  0
   20.3390   40.4820    6.8380 S   0  0  0  0  0  0  0  0  0  0  0  0
   21.4610   40.5230    5.5090 C   0  0  0  0  0  0  0  0  0  0  0  0
   21.3650   41.6120    4.7130 N   0  0  0  0  0  0  0  0  0  0  0  0
   22.3050   41.6780    3.7600 C   0  0  0  0  0  0  0  0  0  0  0  0
   23.3010   40.6890    3.5730 C   0  0  0  0  0  0  0  0  0  0  0  0
   23.3830   39.6340    4.4200 N   0  0  0  0  0  0  0  0  0  0  0  0
   22.4610   39.5390    5.3790 C   0  0  0  0  0  0  0  0  0  0  0  0
   22.5850   38.4420    6.2210 N   0  0  0  0  0  0  0  0  0  0  0  0
   17.7300   41.0640    8.4130 Cl  0  0  0  0  0  0  0  0  0  0  0  0
   24.5740   42.1400    2.0080 C   0  0  0  0  0  0  0  0  0  0  0  0
   24.3310   40.8310    2.6120 N   0  0  0  0  0  0  0  0  0  0  0  0
   27.8870   43.6720    4.4760 N   0  0  0  0  0  0  0  0  0  0  0  0
   15.2390   40.7880    6.8020 N   0  0  0  0  0  0  0  0  0  0  0  0
  3  2  2  0
  6  5  1  0
  7  6  1  0
  8  7  1  0
  9  7  1  0
  9  4  1  0
 10  4  1  0
 11  7  1  0
 11 10  1  0
 10 12  1  1
 13  1  2  0
 13  2  1  0
 14  3  1  0
 15  1  1  0
 15 14  2  0
 16 14  1  0
 17 16  1  0
 18 17  2  0
 19 18  1  0
 20 19  2  0
 21 20  1  0
 22 17  1  0
 22 21  1  0
 23 22  2  0
 24  3  1  0
 25  8  1  0
 26 25  1  0
 26 20  1  0
 26  5  1  0
 11 27  1  6
 28  2  1  0
M  END
$$$$

     RDKit          3D

 28 31  0  0  0  0  0  0  0  0999 V2000
   17.3640   39.7940    4.1560 C   0  0  0  0  0  0  0  0  0  0  0  0
   16.3940   40.4750    6.1170 C   0  0  0  0  0  0  0  0  0  0  0  0
   17.6310   40.5720    6.7650 C   0  0  0  0  0  0  0  0  0  0  0  0
   28.8790   42.5720    1.7890 O   0  0  0  0  0  0  0  0  0  0  0  0
   25.3880   39.8300    2.4310 C   0  0  0  0  0  0  0  0  0  0  0  0
   26.6180   40.3580    3.2250 C   0  0  0  0  0  0  0  0  0  0  0  0
   26.9510   41.8630    2.9370 C   0  0  0  0  0  0  0  0  0  0  0  0
   25.6630   42.7510    2.9100 C   0  0  0  0  0  0  0  0  0  0  0  0
   27.6330   41.9510    1.5510 C   0  0  0  0  0  0  0  0  0  0  0  0
   29.3200   42.1570    3.0680 C   0  0  2  0  0  0  0  0  0  0  0  0
   28.0570   42.3070    3.9190 C   0  0  1  0  0  0  0  0  0  0  0  0
   30.5630   42.9390    3.4980 C   0  0  0  0  0  0  0  0  0  0  0  0
   16.2510   40.0700    4.8530 N   0  0  0  0  0  0  0  0  0  0  0  0
   18.7860   40.3120    6.0320 C   0  0  0  0  0  0  0  0  0  0  0  0
   18.6530   39.8630    4.7130 C   0  0  0  0  0  0  0  0  0  0  0  0
   20.3390   40.4820    6.8380 S   0  0  0  0  0  0  0  0  0  0  0  0
   21.4610   40.5230    5.5090 C   0  0  0  0  0  0  0  0  0  0  0  0
   21.3650   41.6120    4.7130 N   0  0  0  0  0  0  0  0  0  0  0  0
   22.3050   41.6780    3.7600 C   0  0  0  0  0  0  0  0  0  0  0  0
   23.3010   40.6890    3.5730 C   0  0  0  0  0  0  0  0  0  0  0  0
   23.3830   39.6340    4.4200 N   0  0  0  0  0  0  0  0  0  0  0  0
   22.4610   39.5390    5.3790 C   0  0  0  0  0  0  0  0  0  0  0  0
   22.5850   38.4420    6.2210 N   0  0  0  0  0  0  0  0  0  0  0  0
   17.7300   41.0640    8.4130 Cl  0  0  0  0  0  0  0  0  0  0  0  0
   24.5740   42.1400    2.0080 C   0  0  0  0  0  0  0  0  0  0  0  0
   24.3310   40.8310    2.6120 N   0  0  0  0  0  0  0  0  0  0  0  0
   27.8870   43.6720    4.4760 N   0  0  0  0  0  0  0  0  0  0  0  0
   15.2390   40.7880    6.8020 N   0  0  0  0  0  0  0  0  0  0  0  0
  3  2  2  0
  6  5  1  0
  7  6  1  0
  8  7  1  0
  9  7  1  0
  9  4  1  0
 10  4  1  0
 11  7  1  0
 11 10  1  0
 10 12  1  1
 13  1  2  0
 13  2  1  0
 14  3  1  0
 15  1  1  0
 15 14  2  0
 16 14  1  0
 17 16  1  0
 18 17  2  0
 19 18  1  0
 20 19  2  0
 21 20  1  0
 22 17  1  0
 22 21  2  0
 23 22  1  0
 24  3  1  0
 25  8  1  0
 26 25  1  0
 26 20  1  0
 26  5  1  0
 11 27  1  6
 28  2  1  0
M  END
$$$$
